82
hopane.pdb
C          0.66700        0.27400       -0.55400
C          1.51600       -0.78200        0.20200
C          0.75100       -1.10900        1.49700
C          1.58400       -2.02900       -0.71400
C          2.57300       -3.08800       -0.25000
C          3.97500       -2.51800       -0.03200
C          4.03200       -1.29400        0.93700
C          3.76000       -1.82100        2.36600
C          5.46700       -0.60500        0.81900
H          5.55400       -0.41600       -0.25900
C          6.65700       -1.53400        1.14700
C          8.01100       -0.91300        0.79500
C          8.21900        0.46200        1.45700
H          8.08300        0.28700        2.53100
C          9.70800        0.98300        1.36200
C         10.33400        0.86100       -0.04000
C         10.60200        0.15200        2.34900
C         11.03200        1.09400        3.47300
C         10.03300        2.25000        3.42400
H          9.09000        1.88800        3.85400
C         10.43700        3.50600        4.23100
C         10.61400        3.17200        5.71600
C         11.68500        4.22700        3.71600
C          9.85800        2.43600        1.90000
H         10.79100        2.85700        1.50000
C          8.73200        3.38700        1.49900
C          7.33600        2.82400        1.76100
C          7.06700        1.46200        1.05800
C          7.06600        1.74900       -0.47500
C          5.63100        0.81100        1.51400
C          5.56300        0.69200        3.06800
C          4.43700        1.71700        1.09600
C          3.05400        1.06900        1.23700
C          2.97200       -0.24200        0.43200
H         -0.28700       -0.15300       -0.88400
H          1.18800        0.64100       -1.44500
H          0.42600        1.13500        0.07700
H          1.15400       -1.97200        2.02700
H         -0.29600       -1.35200        1.27600
H          0.74300       -0.25900        2.18600
H          1.87300       -1.71800       -1.72700
H          0.59000       -2.48500       -0.81000
H          2.62800       -3.87900       -1.00900
H          2.20300       -3.57600        0.65700
H          4.38000       -2.23000       -1.01100
H          4.61100       -3.33000        0.34000
H          4.67800       -2.09300        2.89200
H          3.15700       -2.73300        2.37100
H          3.22200       -1.10500        2.98900
H          6.57800       -2.47100        0.58700
H          6.66500       -1.81000        2.20500
H          8.09600       -0.83700       -0.29400
H          8.79400       -1.61200        1.11100
H         11.39100        1.15300       -0.01700
H          9.86200        1.50500       -0.78000
H         10.30400       -0.16800       -0.41300
H         11.48900       -0.27100        1.86300
H         10.05800       -0.69600        2.78000
H         12.05400        1.43800        3.28200
H         11.02900        0.58200        4.44100
H          9.60500        4.22000        4.16900
H         11.48100        2.52500        5.88500
H          9.72700        2.66600        6.11100
H         10.76300        4.08600        6.30200
H         12.57000        3.58500        3.74400
H         11.89900        5.10800        4.33200
H         11.54900        4.58200        2.69000
H          8.84100        3.64700        0.44000
H          8.83500        4.33900        2.03200
H          6.59700        3.56700        1.43800
H          7.22700        2.73900        2.84400
H          8.00500        2.16900       -0.82600
H          6.31700        2.49800       -0.74600
H          6.88500        0.86400       -1.08700
H          6.29600       -0.00100        3.48400
H          4.59100        0.36000        3.42500
H          5.70300        1.65900        3.55800
H          4.52500        2.01100        0.04700
H          4.44600        2.64800        1.67500
H          2.32800        1.79600        0.86000
H          2.80000        0.91600        2.28900
H          3.30900        0.03300       -0.58200
